Circuit: * Z:\home\luke\Workspace\Git\Control-Sensing-Wireless-Charging-Robot\Documentation\Electrical\PCB\Sources\Power_Dist_Design\Power_Dist_Design\12V_Reg\Draft1.asc

Direct Newton iteration failed to find .op point.  (Use ".option noopiter" to skip.)
Starting Gmin stepping
Gmin = 10
Gmin = 1.07374
Gmin = 0.115292
Gmin = 0.0123794
Gmin = 0.00132923
Gmin = 0.000142725
Gmin = 1.5325e-05
Gmin = 1.6455e-06
Gmin = 1.76685e-07
Gmin = 1.89714e-08
Gmin = 2.03704e-09
Gmin = 2.18725e-10
Gmin = 2.34854e-11
Gmin = 2.52173e-12
Gmin = 2.70769e-13
Gmin = 0
Gmin stepping succeeded in finding the operating point.

Changing Tseed to 7.8125e-10

Date: Tue Oct 24 21:30:54 2023
Total elapsed time: 7.815 seconds.

tnom = 27
temp = 27
method = modified trap
totiter = 589237
traniter = 588799
tranpoints = 211828
accept = 161940
rejected = 49887
matrix size = 20
fillins = 2
solver = Normal
Avg thread counts: 1.0/1.0/1.0/1.0
Matrix Compiler1: 738 bytes object code size  1.8/1.6/[1.6]
Matrix Compiler2: 1.23 KB object code size  1.8/1.7/[1.5]

